#RADIOSS STARTER
/BEGIN
Punch_Die_Shearing
      2022         0
                  kg                   m                   s
                  kg                   m                   s
/TITLE
Punch Die Shearing - V6 with AMS (Fine Blanking Optimized)
/NODE
         1  1.859571380000E-01 -1.882188300000E+00  0.000000000000E+00
         2  1.853571380000E-01 -1.882188290000E+00  0.000000000000E+00
         3  1.853571380000E-01 -1.882188290000E+00  5.000000000000E-04
         4  1.859571380000E-01 -1.882188300000E+00  5.000000000000E-04
         5  1.876571380000E-01 -1.880188300000E+00  0.000000000000E+00
         6  1.843571420000E-01 -1.880188300000E+00  0.000000000000E+00
         7  1.853630530000E-01 -1.881194210000E+00  0.000000000000E+00
         8  1.857151910000E-01 -1.881340070000E+00  0.000000000000E+00
         9  1.876571380000E-01 -1.881340070000E+00  0.000000000000E+00
        10  1.876571380000E-01 -1.880188300000E+00  5.000000000000E-04
        11  1.843571420000E-01 -1.880188300000E+00  5.000000000000E-04
        12  1.876571380000E-01 -1.881340070000E+00  5.000000000000E-04
        13  1.857151910000E-01 -1.881340070000E+00  5.000000000000E-04
        14  1.853630530000E-01 -1.881194210000E+00  5.000000000000E-04
        15  1.836571380000E-01 -1.880188300000E+00  0.000000000000E+00
        16  1.836571380000E-01 -1.881219240000E+00  0.000000000000E+00
        17  1.848477730000E-01 -1.882409870000E+00  0.000000000000E+00
        18  1.848477730000E-01 -1.882754940000E+00  0.000000000000E+00
        19  1.836571380000E-01 -1.883945580000E+00  0.000000000000E+00
        20  1.836571380000E-01 -1.884188300000E+00  0.000000000000E+00
# ... 11462 like lines cut
/MAT/LAW1/1
S185_Steel
#              RHO_I
           7800.0
#                  E                  NU
          2.1E+11               0.28
                   0                   0                   0                   0                   0
/MAT/LAW2/2
1060_Alloy_Plastic
#              RHO_I
           2700.0
#                  E                  NU
          6.9E+10               0.33
#                  a                   b                   n           EPS_p_max               Xmax
          2.0E+08           1.5E+08                0.20               1.0               2.0
                 0.0                 0.0                 0.0                 0.0                 0.0
                 0.0                 0.0                 0.0                 0.0                 0.0
                 0.0                 0.0                 0.0                 0.0                 0.0
/PROP/SOLID/1
#   Isolid    Ismstr                               Dn                Qa                Hm
        14         4             0.00000             0.00000             0.50000
                   0                   0                   0                   0                   0
/PROP/SOLID/2
#   Isolid    Ismstr                               Dn                Qa                Hm
        14         4             0.00000             0.00000             1.00000
                   0                   0                   0                   0                   0
/PROP/SHELL/999
Skin_Property
#   Ishell    Ismstr      Ish3n    Idrill
         1         2         2         0
             0.00000             0.00000             0.00000             0.00000             0.00000
             5.00000             0.00100             0.00000             0.00000             0.00000             0.00000
                   0                   0                   0                   0                   0
/PART/1
Punch_PUNCH
#    Prop_ID     Mat_ID
         1         1
/PART/2
Material_MATERIAL
#    Prop_ID     Mat_ID
         2         2
/PART/3
Die_DIE
#    Prop_ID     Mat_ID
         1         1
/PART/4
Stripper_STRIPPER
#    Prop_ID     Mat_ID
         1         1
/PART/101
Punch_Skin
#    Prop_ID     Mat_ID
       999         1
/PART/102
Material_Skin
#    Prop_ID     Mat_ID
       999         2
/PART/103
Die_Skin
#    Prop_ID     Mat_ID
       999         1
/PART/104
Stripper_Skin
#    Prop_ID     Mat_ID
       999         1
/SURF/PART/300/0
Punch_Skin_Surf
       101

/SURF/PART/500/0
Die_Skin_Surf
       103

/SURF/PART/600/0
Stripper_Skin_Surf
       104

/TETRA4/1
     48097     10260     10258     10253     10254
     48098     10203     10184     10248     10188
     48099     10231     10205     10206     10253
     48100     10257     10258     10252     10259
     48101     10256     10258     10259     10255
     48102     10209     10193     10235     10245
     48103     10242     10232     10260     10243
     48104     10216     10192     10245     10193
     48105     10259     10260     10255     10258
     48106     10198     10219     10257     10199
     48107     10248     10203     10260     10240
     48108     10222     10229     10259     10221
     48109     10260     10244     10241     10243
     48110     10238     10234     10202     10260
     48111     10219     10259     10226     10218
     48112     10194     10259     10216     10223
     48113     10248     10249     10214     10188
     48114     10228     10219     10220     10259
     48115     10202     10234     10201     10260
     48116     10252     10260     10259     10258
# ... 862 like lines cut
/TETRA4/2
         1      6346       867       793       794
         2      1041      1042      1096      6502
         3      7318      5302      5303      7313
         4      4089     10045      4010      4088
         5     10034     10153     10116     10008
         6      1194      1214      1054      6488
         7      6445      6437      6436      6455
         8      1214      1055       124      1054
         9       822      6386      6431      6403
        10      6451      6281      6438      6474
        11      6162      6220      9990      9987
        12      9961      9862     10156      9852
        13      6491      6490      6488      1109
        14      6346      6350      6326      6351
        15     10010     10074     10016     10089
        16      8737      8735      8789      8889
        17      1194      1232      1214      6488
        18      1055      6488      1195      6490
        19     10103     10093     10089     10096
        20      1223      1204       849      6378
# ... 48076 like lines cut
/TETRA4/3
     50288     11317     11424     11222     11423
     50289     11453     11168     11372     11406
     50290     11443     11424     11253     11425
     50291     11424     11443     11442     11425
     50292     11326     11459     11219     11091
     50293     11219     11244     11220     11459
     50294     11431     11220     11260     11417
     50295     11214     11427     11429     11472
     50296     11310     11226     11448     11447
     50297     11312     11447     11376     11171
     50298     11466     11332     11321     11330
     50299     11263     11422     11421     11264
     50300     11419     11366     11464     11466
     50301     11436     11362     11113     11274
     50302     11432     11413     11399     11436
     50303     11424     11425     11398     11456
     50304     11454     11423     11453     11372
     50305     11419     11464     11418     11468
     50306     11368     11322     11457     11460
     50307     11454     11372     11453     11313
# ... 1314 like lines cut
/TETRA4/4
     48979     10925     10939     10743     10830
     48980     10862     10996     10857     10855
     48981     10806     10799     10973     10961
     48982     10917     10992     10858     10990
     48983     10925     10773     10744     10791
     48984     10996     10914     10997     10964
     48985     11012     10777     10721     10788
     48986     10996     10710     10914     10948
     48987     10959     11002     10696     10881
     48988     10714     10859     10855     10997
     48989     10996     10915     10710     10948
     48990     10959     10946     10911     10945
     48991     10719     10910     11001     10911
     48992     10868     11003     10761     10633
     48993     10761     10786     10762     11003
     48994     10972     10762     10802     10959
     48995     10989     10707     10569     10853
     48996     11012     10721     10777     10877
     48997     11008     11007     11004     10880
     48998     10852     10768     10991     10990
# ... 1289 like lines cut
/SH3N/101
     51622     10184     10248     10188
     51623     10188     10248     10249
     51624     10185     10192     10245
     51625     10192     10250     10245
     51626     10185     10245     10209
     51627     10210     10246     10211
     51628     10213     10247     10248
     51629     10245     10251     10246
     51630     10212     10247     10213
     51631     10211     10246     10247
     51632     10245     10250     10251
     51633     10247     10251     10248
     51634     10191     10250     10192
     51635     10188     10249     10189
     51636     10211     10247     10212
     51637     10189     10249     10190
     51638     10184     10213     10248
     51639     10248     10251     10249
     51640     10190     10249     10250
     51641     10209     10245     10246
# ... 145 like lines cut
/SH3N/102
     51787      1194      1214      1232
     51788       114       115      1190
     51789      1225      1269      1262
     51790      1193      1230      1212
     51791      1195      1233      1232
     51792       111      1208      1188
     51793        75        76      1198
     51794      6112      6208      6150
     51795       763      6233      6182
     51796      1203      1243      1242
     51797      1216      1235      1234
     51798       654      6142      6141
     51799        60       788        61
     51800       654       655      6142
     51801       793       804       794
     51802      5905      6007      5946
     51803       782       806       807
     51804      6164      6222      6165
     51805      1187      1227      1245
     51806      5899      5913      5955
# ... 7574 like lines cut
/SH3N/103
     59381     11168     11372     11406
     59382     11339     11341     11390
     59383     11368     11403     11369
     59384     11168     11373     11169
     59385     11156     11343     11342
     59386     11337     11394     11379
     59387     11044     11178     11370
     59388     11360     11401     11395
     59389     11147     11148     11349
     59390     11351     11391     11393
     59391     11358     11409     11384
     59392     11358     11385     11414
     59393     11043     11171     11376
     59394     11351     11393     11352
     59395     11390     11404     11403
     59396     11394     11412     11402
     59397     11040     11152     11344
     59398     11371     11398     11393
     59399     11037     11143     11352
     59400     11175     11367     11176
# ... 213 like lines cut
/SH3N/104
     59614     10744     10791     10773
     59615     10721     10788     10777
     59616     10761     10762     10786
     59617     10773     10791     10804
     59618     10558     10595     10728
     59619     10597     10732     10598
     59620     10743     10791     10744
     59621     10569     10630     10758
     59622     10637     10638     10767
     59623     10556     10589     10590
     59624     10752     10783     10755
     59625     10558     10728     10730
     59626     10570     10764     10763
     59627     10774     10804     10799
     59628     10784     10803     10792
     59629     10792     10803     10797
     59630     10608     10743     10744
     59631     10757     10775     10776
     59632     10614     10746     10615
     59633     10598     10732     10733
# ... 223 like lines cut
/GRNOD/NODE/100
Punch_Nodes
     10184     10185     10186     10187     10188     10189     10190     10191     10192     10193
     10194     10195     10196     10197     10198     10199     10200     10201     10202     10203
     10204     10205     10206     10207     10208     10209     10210     10211     10212     10213
     10214     10215     10216     10217     10218     10219     10220     10221     10222     10223
     10224     10225     10226     10227     10228     10229     10230     10231     10232     10233
     10234     10235     10236     10237     10238     10239     10240     10241     10242     10243
     10244     10245     10246     10247     10248     10249     10250     10251     10252     10253
     10254     10255     10256     10257     10258     10259     10260     10261     10262     10263
     10264     10265     10266     10267     10268     10269     10270     10271     10272     10273
     10274     10275     10276     10277     10278     10279     10280     10281     10282     10283
     10284     10285     10286     10287     10288     10289     10290     10291     10292     10293
     10294     10295     10296     10297     10298     10299     10300     10301     10302     10303
     10304     10305     10306     10307     10308     10309     10310     10311     10312     10313
     10314     10315     10316     10317     10318     10319     10320     10321     10322     10323
     10324     10325     10326     10327     10328     10329     10330     10331     10332     10333
     10334     10335     10336     10337     10338     10339     10340     10341     10342     10343
     10344     10345     10346     10347     10348     10349     10350     10351     10352     10353
     10354     10355     10356     10357     10358     10359     10360     10361     10362     10363
     10364     10365     10366     10367     10368     10369     10370     10371     10372     10373
     10374     10375     10376     10377     10378     10379     10380     10381     10382     10383
# ... 18 like lines cut
/GRNOD/NODE/200
Die_Nodes
     11013     11014     11015     11016     11017     11018     11019     11020     11021     11022
     11023     11024     11025     11026     11027     11028     11029     11030     11031     11032
     11033     11034     11035     11036     11037     11038     11039     11040     11041     11042
     11043     11044     11045     11046     11047     11048     11049     11050     11051     11052
     11053     11054     11055     11056     11057     11058     11059     11060     11061     11062
     11063     11064     11065     11066     11067     11068     11069     11070     11071     11072
     11073     11074     11075     11076     11077     11078     11079     11080     11081     11082
     11083     11084     11085     11086     11087     11088     11089     11090     11091     11092
     11093     11094     11095     11096     11097     11098     11099     11100     11101     11102
     11103     11104     11105     11106     11107     11108     11109     11110     11111     11112
     11113     11114     11115     11116     11117     11118     11119     11120     11121     11122
     11123     11124     11125     11126     11127     11128     11129     11130     11131     11132
     11133     11134     11135     11136     11137     11138     11139     11140     11141     11142
     11143     11144     11145     11146     11147     11148     11149     11150     11151     11152
     11153     11154     11155     11156     11157     11158     11159     11160     11161     11162
     11163     11164     11165     11166     11167     11168     11169     11170     11171     11172
     11173     11174     11175     11176     11177     11178     11179     11180     11181     11182
     11183     11184     11185     11186     11187     11188     11189     11190     11191     11192
     11193     11194     11195     11196     11197     11198     11199     11200     11201     11202
     11203     11204     11205     11206     11207     11208     11209     11210     11211     11212
# ... 27 like lines cut
/GRNOD/NODE/300
Stripper_Nodes
     10555     10556     10557     10558     10559     10560     10561     10562     10563     10564
     10565     10566     10567     10568     10569     10570     10571     10572     10573     10574
     10575     10576     10577     10578     10579     10580     10581     10582     10583     10584
     10585     10586     10587     10588     10589     10590     10591     10592     10593     10594
     10595     10596     10597     10598     10599     10600     10601     10602     10603     10604
     10605     10606     10607     10608     10609     10610     10611     10612     10613     10614
     10615     10616     10617     10618     10619     10620     10621     10622     10623     10624
     10625     10626     10627     10628     10629     10630     10631     10632     10633     10634
     10635     10636     10637     10638     10639     10640     10641     10642     10643     10644
     10645     10646     10647     10648     10649     10650     10651     10652     10653     10654
     10655     10656     10657     10658     10659     10660     10661     10662     10663     10664
     10665     10666     10667     10668     10669     10670     10671     10672     10673     10674
     10675     10676     10677     10678     10679     10680     10681     10682     10683     10684
     10685     10686     10687     10688     10689     10690     10691     10692     10693     10694
     10695     10696     10697     10698     10699     10700     10701     10702     10703     10704
     10705     10706     10707     10708     10709     10710     10711     10712     10713     10714
     10715     10716     10717     10718     10719     10720     10721     10722     10723     10724
     10725     10726     10727     10728     10729     10730     10731     10732     10733     10734
     10735     10736     10737     10738     10739     10740     10741     10742     10743     10744
     10745     10746     10747     10748     10749     10750     10751     10752     10753     10754
# ... 26 like lines cut
/GRNOD/NODE/400
Material_Skin_Nodes
         1         2         3         4         5         6         7         8         9        10
        11        12        13        14        15        16        17        18        19        20
        21        22        23        24        25        26        27        28        29        30
        31        32        33        34        35        36        37        38        39        40
        41        42        43        44        45        46        47        48        49        50
        51        52        53        54        55        56        57        58        59        60
        61        62        63        64        65        66        67        68        69        70
        71        72        73        74        75        76        77        78        79        80
        81        82        83        84        85        86        87        88        89        90
       109       110       111       112       113       114       115       116       117       118
       119       120       121       122       123       124       125       126       127       128
       129       130       131       132       133       134       135       136       137       138
       139       140       141       142       143       144       145       146       147       148
       149       150       151       152       153       154       155       156       157       158
       159       160       161       162       163       164       165       166       167       168
       169       170       171       172       173       174       175       176       177       178
       179       180       181       182       183       184       185       186       187       188
       189       190       191       192       193       194       195       196       197       198
       199       200       201       202       203       204       205       206       207       208
       209       210       211       212       213       214       215       216       217       218
# ... 360 like lines cut
/FUNCT/1
Velocity_Ramp
#                  X                   Y
             0.00000             0.00000
             0.00900            -0.03500
             0.20000            -0.03500
/FUNCT/2
Zero_Velocity
#                  X                   Y
             0.00000             0.00000
             0.20000             0.00000
/FUNCT/3
Stripper_Limit
#                  X                   Y
             0.00000             0.00000
             0.00300            -0.01000
             0.01000            -0.01000
             0.01300             0.00000
             0.20000             0.00000
/IMPVEL/1
Punch_Velocity_Z
#   Funct_ID    Dir   Skew_ID   Sens_ID   Gnod_ID     Icoor    Iframe
         1         Z         0         0       100         0         0
#             Ascale_x            Fscale_y            Tstart              Tstop
             1.00000             1.00000             0.00000         1.00000E+30
/IMPVEL/6
Punch_Fixed_X
#   Funct_ID    Dir   Skew_ID   Sens_ID   Gnod_ID     Icoor    Iframe
         2         X         0         0       100         0         0
#             Ascale_x            Fscale_y            Tstart              Tstop
             1.00000             1.00000             0.00000         1.00000E+30
/IMPVEL/7
Punch_Fixed_Y
#   Funct_ID    Dir   Skew_ID   Sens_ID   Gnod_ID     Icoor    Iframe
         2         Y         0         0       100         0         0
#             Ascale_x            Fscale_y            Tstart              Tstop
             1.00000             1.00000             0.00000         1.00000E+30
/IMPVEL/2
Die_Fixed_X
#   Funct_ID    Dir   Skew_ID   Sens_ID   Gnod_ID     Icoor    Iframe
         2         X         0         0       200         0         0
#             Ascale_x            Fscale_y            Tstart              Tstop
             1.00000             1.00000             0.00000         1.00000E+30
/IMPVEL/3
Die_Fixed_Y
#   Funct_ID    Dir   Skew_ID   Sens_ID   Gnod_ID     Icoor    Iframe
         2         Y         0         0       200         0         0
#             Ascale_x            Fscale_y            Tstart              Tstop
             1.00000             1.00000             0.00000         1.00000E+30
/IMPVEL/4
Die_Fixed_Z
#   Funct_ID    Dir   Skew_ID   Sens_ID   Gnod_ID     Icoor    Iframe
         2         Z         0         0       200         0         0
#             Ascale_x            Fscale_y            Tstart              Tstop
             1.00000             1.00000             0.00000         1.00000E+30
/IMPVEL/5
Stripper_Velocity_Z
#   Funct_ID    Dir   Skew_ID   Sens_ID   Gnod_ID     Icoor    Iframe
         3         Z         0         0       300         0         0
#             Ascale_x            Fscale_y            Tstart              Tstop
             1.00000             1.00000             0.00000         1.00000E+30
/IMPVEL/8
Stripper_Fixed_X
#   Funct_ID    Dir   Skew_ID   Sens_ID   Gnod_ID     Icoor    Iframe
         2         X         0         0       300         0         0
#             Ascale_x            Fscale_y            Tstart              Tstop
             1.00000             1.00000             0.00000         1.00000E+30
/IMPVEL/9
Stripper_Fixed_Y
#   Funct_ID    Dir   Skew_ID   Sens_ID   Gnod_ID     Icoor    Iframe
         2         Y         0         0       300         0         0
#             Ascale_x            Fscale_y            Tstart              Tstop
             1.00000             1.00000             0.00000         1.00000E+30
/INTER/TYPE7/1
Punch_Material_Contact
#   Slav_id    Mast_id       Istf       Ithe       Igap       Ibag       Idel      Icurv
       400       300         4         0         3         0         1         0
#               Fric            Gap_min            Gapmax            Tstart             Tstop
             0.10000             0.00001             1.00000             0.00000         1.00000E+30
#              Stfac            Fpenmax               I_BC             Iform
              0.0001             0.00000         0         2
/INTER/TYPE7/2
Die_Material_Contact
#   Slav_id    Mast_id       Istf       Ithe       Igap       Ibag       Idel      Icurv
       400       500         4         0         3         0         1         0
#               Fric            Gap_min            Gapmax            Tstart             Tstop
             0.10000             0.00001             1.00000             0.00000         1.00000E+30
#              Stfac            Fpenmax               I_BC             Iform
              0.0001             0.00000         0         2
/INTER/TYPE25/3
Stripper_Material_Contact_TYPE25
#   Slav_id   Mast_id   Istf   Ithe   Igap   Ibag   Idel   Icurv   Iadm   Irem_gap
       400       600      4      0      0      0      1       0      0        0
#              Fric       Gap_min       Tstart            Tstop       Stfac     Fpenmax   I_BC   Iform
             0.10000       0.00001      0.00000      1.00000E+30         1.0       0.0      0       2
