#RADIOSS STARTER
/BEGIN
Punch_Die_Shearing
      2022         0
                  kg                   m                   s
                  kg                   m                   s
/TITLE
Punch Die Shearing - SKINS V16 (Slave Node Group + N=5)
/NODE
         1  2.500000000000E-03  2.500000000000E-03  1.100000000000E-03
         2  2.500000000000E-03  2.500000000000E-03  2.100000000000E-03
         3  2.500000000000E-03  7.500000000000E-03  1.100000000000E-03
         4  2.500000000000E-03  7.500000000000E-03  2.100000000000E-03
         5  7.500000000000E-03  2.500000000000E-03  1.100000000000E-03
         6  7.500000000000E-03  2.500000000000E-03  2.100000000000E-03
         7  7.500000000000E-03  7.500000000000E-03  1.100000000000E-03
         8  7.500000000000E-03  7.500000000000E-03  2.100000000000E-03
         9  2.500000000000E-03  2.500000000000E-03  1.590000000000E-03
        10  2.500000000000E-03  3.155000000000E-03  1.100000000000E-03
        11  2.500000000000E-03  4.215000000000E-03  1.100000000000E-03
        12  2.500000000000E-03  5.430000000000E-03  1.100000000000E-03
        13  2.500000000000E-03  6.325000000000E-03  1.100000000000E-03
        14  2.500000000000E-03  6.975000000000E-03  1.100000000000E-03
        15  2.500000000000E-03  7.500000000000E-03  1.590000000000E-03
        16  2.500000000000E-03  3.150000000000E-03  2.100000000000E-03
        17  2.500000000000E-03  4.045000000000E-03  2.100000000000E-03
        18  2.500000000000E-03  5.305000000000E-03  2.100000000000E-03
        19  2.500000000000E-03  6.275000000000E-03  2.100000000000E-03
        20  2.500000000000E-03  6.955000000000E-03  2.100000000000E-03
# ... 9724 like lines cut
/MAT/LAW1/1
S185_Steel
#              RHO_I
           7800.0
#                  E                  NU
          2.1E+11               0.28
                   0                   0                   0                   0                   0
/MAT/LAW2/2
1060_Alloy_Plastic
#              RHO_I
           2700.0
#                  E                  NU
          6.9E+10               0.33
#                  a                   b                   n           EPS_p_max               c
          1.1E+08           1.5E+08                0.20                 0.0                0.0
                 0.0                 0.0                 0.0                 0.0                 0.0
                 0.0                 0.0                 0.0                 0.0                 0.0
                 0.0                 0.0                 0.0                 0.0                 0.0
/FAIL/BIQUAD/1
#  Ifail_sh   Ifail_so
         1         1
#          Eps_p_max           Eps_t_max           Eps_m_max               d_max
             0.15000             0.20000             0.30000             0.00000
#     Dadv      Nmax
         1         1
/PROP/SOLID/1
#   Isolid    Ismstr                               Dn                Qa                Hm
        14         4             0.00000             0.00000             0.50000
                   0                   0                   0                   0                   0
/PROP/SOLID/2
#   Isolid    Ismstr                               Dn                Qa                Hm
        14         4             0.00000             0.00000             1.00000
                   0                   0                   0                   0                   0
/PROP/SHELL/999
Skin_Property
#   Ishell    Ismstr      Ish3n    Idrill
         1         2         2         0
             0.00000             0.00000             0.00000             0.00000             0.00000
             5.00000             0.00100             0.00000             0.00000             0.00000             0.00000
                   0                   0                   0                   0                   0
/PART/1
Punch_PUNCH
#    Prop_ID     Mat_ID
         1         1
/PART/2
Material_MATERIAL
#    Prop_ID     Mat_ID
         2         2
/PART/3
Die_DIE
#    Prop_ID     Mat_ID
         1         1
/PART/101
Punch_Skin
#    Prop_ID     Mat_ID
       999         1
/PART/102
Material_Skin
#    Prop_ID     Mat_ID
       999         2
/PART/103
Die_Skin
#    Prop_ID     Mat_ID
       999         1
/SURF/PART/300/0
Punch_Skin_Surf
       101

/SURF/PART/500/0
Die_Skin_Surf
       103

/TETRA4/1
         1        44        66        50        79
         2        86        68        87        79
         3        33        39        65        83
         4        23        77        30        58
         5        66        68        67        86
         6        39        33        65        34
         7        86        85        69        77
         8        32        52        62        78
         9        27        26        32        62
        10        66        80        89        61
        11        21        28        57        76
        12        32        31        78        25
        13        76        36        56        57
        14        82        85        77        69
        15        77        58        23        57
        16        58        30        23        24
        17        55        75        82        85
        18        87        85        88        70
        19        78        62        32        25
        20        55        40        34        35
# ... 165 like lines cut
/TETRA4/2
       186       113       114       625      1326
       187      6300      6306      6226      6229
       188      1470      6229      1699      1469
       189      2323      5554      2225      2173
       190      1089      7639      7641      6028
       191       176       177       643       384
       192       341       342       817      2606
       193       643      1336       383       384
       194      2584      6229      2697      2525
       196      6310      6229      6228      6309
       197      6451      1447      5833      1676
       199      5545      5549      5539      5540
       200      7460      7444      3607      3495
       201      3607      7444      3555      3495
       202      2695      2805      6298      6248
       203      7350      7359      7370      7366
       204      3959      7201      3817      7318
       205      1441      2511      1442      5813
       207       975       758      6612       974
       209      2805      6181      6298      6248
# ... 45323 like lines cut
/TETRA4/3
     45529      9539      9594      9739      9548
     45530      9697      9739      9677      9539
     45531      9702      9520      9691      9630
     45532      9666      9689      9717      9709
     45533      9598      9553      9653      9552
     45534      9587      9720      9661      9640
     45535      9547      9548      9549      9501
     45536      9607      9570      9571      9709
     45537      9539      9634      9677      9697
     45538      9645      9689      9708      9731
     45539      9668      9625      9725      9732
     45540      9679      9683      9738      9664
     45541      9618      9714      9582      9672
     45542      9653      9719      9637      9553
     45543      9659      9700      9600      9554
     45544      9527      9690      9646      9517
     45545      9677      9548      9547      9539
     45546      9504      9623      9675      9665
     45547      9563      9564      9638      9592
     45548      9670      9612      9576      9575
# ... 533 like lines cut
/SH3N/101
     46082        79        87        86
     46083        66        67        68
     46084        33        34        39
     46085        33        65        34
     46086        77        86        85
     46087        32        52        78
     46088        26        27        32
     46089        31        32        78
     46090        25        32        31
     46091        36        56        57
     46092        77        85        82
     46093        23        57        58
     46094        23        24        30
     46095        23        58        24
     46096        75        82        85
     46097        85        87        88
     46098        34        35        40
     46099        34        55        35
     46100        30        31        84
     46101        24        31        30
# ... 152 like lines cut
/SH3N/102
     46254       113       114      1326
     46255      1469      1699      1470
     46256       176       643       177
     46257       176       177       384
     46258       341       817       342
     46259       383       384      1336
     46260       758       974       975
     46261      1987      2019      1988
     46262      1360      1598      1361
     46263      1814      1939      1815
     46264       440      1396      1397
     46265      1912      2007      1952
     46266      1418      1650      1651
     46267      1569      1947      1899
     46268      1418      1651      1419
     46269       977      1128       978
     46270       527      1485       528
     46271      1462      1691      1692
     46272      1128      1284      1129
     46273      1357      1595      1358
# ... 6500 like lines cut
/SH3N/103
     52774      9548      9594      9739
     52775      9520      9702      9691
     52776      9689      9717      9709
     52777      9552      9598      9553
     52778      9552      9553      9653
     52779      9501      9547      9548
     52780      9501      9548      9549
     52781      9501      9549      9547
     52782      9570      9607      9571
     52783      9689      9708      9731
     52784      9664      9679      9683
     52785      9553      9637      9653
     52786      9539      9548      9547
     52787      9504      9665      9675
     52788      9563      9638      9564
     52789      9563      9564      9592
     52790      9575      9612      9576
     52791      9575      9576      9670
     52792      9555      9600      9740
     52793      9503      9664      9674
# ... 470 like lines cut
/GRNOD/NODE/100
Punch_Nodes
         1         2         3         4         5         6         7         8         9        10
        11        12        13        14        15        16        17        18        19        20
        21        22        23        24        25        26        27        28        29        30
        31        32        33        34        35        36        37        38        39        40
        41        42        43        44        45        46        47        48        49        50
        51        52        53        54        55        56        57        58        59        60
        61        62        63        64        65        66        67        68        69        70
        71        72        73        74        75        76        77        78        79        80
        81        82        83        84        85        86        87        88        89
/GRNOD/NODE/200
Die_Nodes
      9496      9497      9498      9499      9500      9501      9502      9503      9504      9505
      9506      9507      9508      9509      9510      9511      9512      9513      9514      9515
      9516      9517      9518      9519      9520      9521      9522      9523      9524      9525
      9526      9527      9528      9529      9530      9531      9532      9533      9534      9535
      9536      9537      9538      9539      9540      9541      9542      9543      9544      9545
      9546      9547      9548      9549      9550      9551      9552      9553      9554      9555
      9556      9557      9558      9559      9560      9561      9562      9563      9564      9565
      9566      9567      9568      9569      9570      9571      9572      9573      9574      9575
      9576      9577      9578      9579      9580      9581      9582      9583      9584      9585
      9586      9587      9588      9589      9590      9591      9592      9593      9594      9595
      9596      9597      9598      9599      9600      9601      9602      9603      9604      9605
      9606      9607      9608      9609      9610      9611      9612      9613      9614      9615
      9616      9617      9618      9619      9620      9621      9622      9623      9624      9625
      9626      9627      9628      9629      9630      9631      9632      9633      9634      9635
      9636      9637      9638      9639      9640      9641      9642      9643      9644      9645
      9646      9647      9648      9649      9650      9651      9652      9653      9654      9655
      9656      9657      9658      9659      9660      9661      9662      9663      9664      9665
      9666      9667      9668      9669      9670      9671      9672      9673      9674      9675
      9676      9677      9678      9679      9680      9681      9682      9683      9684      9685
      9686      9687      9688      9689      9690      9691      9692      9693      9694      9695
# ... 5 like lines cut
/GRNOD/NODE/400
Material_Skin_Nodes
        90        91        92        93        94        95        96        97        98        99
       100       101       102       103       104       105       106       107       108       109
       110       111       112       113       114       115       116       117       118       119
       120       121       122       123       124       125       126       127       128       129
       130       131       132       133       134       135       136       137       138       139
       140       141       142       143       144       145       146       147       148       149
       150       151       152       153       154       155       156       157       158       159
       160       161       162       163       164       165       166       167       168       169
       170       171       172       173       174       175       176       177       178       179
       180       181       182       183       184       185       186       187       188       189
       190       191       192       193       194       195       196       197       198       199
       200       201       202       203       204       205       206       207       208       209
       210       211       212       213       214       215       216       217       218       219
       220       221       222       223       224       225       226       227       228       229
       230       231       232       233       234       235       236       237       238       239
       240       241       242       243       244       245       246       247       248       249
       250       251       252       253       254       255       256       257       258       259
       260       261       262       263       264       265       266       267       268       269
       270       271       272       273       274       275       276       277       278       279
       280       281       282       283       284       285       286       287       288       289
# ... 307 like lines cut
/FUNCT/1
Velocity_Ramp
#                  X                   Y
             0.00000             0.00000
             0.00500            -0.33300
             0.05000            -0.33300
/FUNCT/2
Zero_Velocity
#                  X                   Y
             0.00000             0.00000
             0.10000             0.00000
/IMPVEL/1
Punch_Velocity
#   Funct_ID    Dir   Skew_ID   Sens_ID   Gnod_ID     Icoor    Iframe
         1         Z         0         0       100         0         0
#             Ascale_x            Fscale_y            Tstart              Tstop
             1.00000             1.00000             0.00000         1.00000E+30
/IMPVEL/2
Die_Fixed_X
#   Funct_ID    Dir   Skew_ID   Sens_ID   Gnod_ID     Icoor    Iframe
         2         X         0         0       200         0         0
#             Ascale_x            Fscale_y            Tstart              Tstop
             1.00000             1.00000             0.00000         1.00000E+30
/IMPVEL/3
Die_Fixed_Y
#   Funct_ID    Dir   Skew_ID   Sens_ID   Gnod_ID     Icoor    Iframe
         2         Y         0         0       200         0         0
#             Ascale_x            Fscale_y            Tstart              Tstop
             1.00000             1.00000             0.00000         1.00000E+30
/IMPVEL/4
Die_Fixed_Z
#   Funct_ID    Dir   Skew_ID   Sens_ID   Gnod_ID     Icoor    Iframe
         2         Z         0         0       200         0         0
#             Ascale_x            Fscale_y            Tstart              Tstop
             1.00000             1.00000             0.00000         1.00000E+30
/INTER/TYPE7/1
Punch_Material_Contact
#   Slav_id    Mast_id       Istf       Ithe       Igap       Ibag       Idel      Icurv
       400       300         4         0         2         0         1         0
#               Fric            Gap_min            Gapmax            Tstart             Tstop
             0.10000             0.00010             1.00000             0.00000         1.00000E+30
#              Stfac            Fpenmax               I_BC             Iform
             100.000             0.00000         0         0
/INTER/TYPE7/2
Die_Material_Contact
#   Slav_id    Mast_id       Istf       Ithe       Igap       Ibag       Idel      Icurv
       400       500         4         0         2         0         1         0
#               Fric            Gap_min            Gapmax            Tstart             Tstop
             0.10000             0.00010             1.00000             0.00000         1.00000E+30
#              Stfac            Fpenmax               I_BC             Iform
             100.000             0.00000         0         0
/DT/NODA/CST
#               Tmin            Tscale
         5.0E-08             0.90000
/END
