**
** Heading +++++++++++++++++++++++++++++++++++++++++++++++++
**
*Heading
Hash: FvRZHhvw, Date: 12/29/2025, Unit system: MM_TON_S_C
**
** Nodes +++++++++++++++++++++++++++++++++++++++++++++++++++
**
*Node
1, 2.50000000E+000, 2.50000000E+000, 1.10000000E+000
2, 2.50000000E+000, 2.50000000E+000, 2.10000000E+000
3, 2.50000000E+000, 7.50000000E+000, 1.10000000E+000
4, 2.50000000E+000, 7.50000000E+000, 2.10000000E+000
5, 7.50000000E+000, 2.50000000E+000, 1.10000000E+000
6, 7.50000000E+000, 2.50000000E+000, 2.10000000E+000
7, 7.50000000E+000, 7.50000000E+000, 1.10000000E+000
8, 7.50000000E+000, 7.50000000E+000, 2.10000000E+000
9, 2.50000000E+000, 2.50000000E+000, 1.59000000E+000
10, 2.50000000E+000, 3.15500000E+000, 1.10000000E+000
11, 2.50000000E+000, 4.21500000E+000, 1.10000000E+000
12, 2.50000000E+000, 5.43000000E+000, 1.10000000E+000
13, 2.50000000E+000, 6.32500000E+000, 1.10000000E+000
14, 2.50000000E+000, 6.97500000E+000, 1.10000000E+000
15, 2.50000000E+000, 7.50000000E+000, 1.59000000E+000
16, 2.50000000E+000, 3.15000000E+000, 2.10000000E+000
17, 2.50000000E+000, 4.04500000E+000, 2.10000000E+000
18, 2.50000000E+000, 5.30500000E+000, 2.10000000E+000
19, 2.50000000E+000, 6.27500000E+000, 2.10000000E+000
20, 2.50000000E+000, 6.95500000E+000, 2.10000000E+000
** ... 9724 like lines cut
**
** Elements ++++++++++++++++++++++++++++++++++++++++++++++++
**
*Element, Type=C3D4, Elset=Solid_part-1
1, 44, 66, 50, 79
2, 86, 68, 87, 79
3, 33, 39, 65, 83
4, 23, 77, 30, 58
5, 66, 68, 67, 86
6, 39, 33, 65, 34
7, 86, 85, 69, 77
8, 32, 52, 62, 78
9, 27, 26, 32, 62
10, 66, 80, 89, 61
11, 21, 28, 57, 76
12, 32, 31, 78, 25
13, 76, 36, 56, 57
14, 82, 85, 77, 69
15, 77, 58, 23, 57
16, 58, 30, 23, 24
17, 55, 75, 82, 85
18, 87, 85, 88, 70
19, 78, 62, 32, 25
20, 55, 40, 34, 35
** ... 165 like lines cut
*Element, Type=C3D4, Elset=Solid_part-5
186, 113, 114, 625, 1326
187, 6300, 6306, 6226, 6229
188, 1470, 6229, 1699, 1469
189, 2323, 5554, 2225, 2173
190, 1089, 7639, 7641, 6028
191, 176, 177, 643, 384
192, 341, 342, 817, 2606
193, 643, 1336, 383, 384
194, 2584, 6229, 2697, 2525
196, 6310, 6229, 6228, 6309
197, 6451, 1447, 5833, 1676
199, 5545, 5549, 5539, 5540
200, 7460, 7444, 3607, 3495
201, 3607, 7444, 3555, 3495
202, 2695, 2805, 6298, 6248
203, 7350, 7359, 7370, 7366
204, 3959, 7201, 3817, 7318
205, 1441, 2511, 1442, 5813
207, 975, 758, 6612, 974
209, 2805, 6181, 6298, 6248
** ... 24233 like lines cut
*Element, Type=C3D4, Elset=Solid_part-6
195, 3763, 9352, 3606, 3802
198, 3889, 9352, 3763, 3802
206, 8936, 9058, 8956, 9038
208, 9008, 8895, 9007, 9015
211, 9029, 9036, 9040, 9058
214, 9029, 9058, 9040, 8970
216, 8832, 3083, 3196, 8988
220, 7814, 7959, 7953, 7831
226, 8647, 8736, 8683, 8820
230, 9206, 9287, 9284, 9298
233, 8791, 8839, 8721, 8803
241, 3226, 8794, 3295, 8816
245, 8803, 8794, 3226, 8816
254, 3831, 9284, 3858, 9275
257, 3174, 8465, 8464, 8372
262, 3282, 3173, 8465, 3174
267, 7776, 2506, 2500, 7701
268, 9307, 9381, 9385, 4501
281, 9287, 9284, 9275, 9206
286, 9046, 9042, 9040, 8952
** ... 21070 like lines cut
*Element, Type=C3D4, Elset=Solid_part-4
45529, 9539, 9594, 9739, 9548
45530, 9697, 9739, 9677, 9539
45531, 9702, 9520, 9691, 9630
45532, 9666, 9689, 9717, 9709
45533, 9598, 9553, 9653, 9552
45534, 9587, 9720, 9661, 9640
45535, 9547, 9548, 9549, 9501
45536, 9607, 9570, 9571, 9709
45537, 9539, 9634, 9677, 9697
45538, 9645, 9689, 9708, 9731
45539, 9668, 9625, 9725, 9732
45540, 9679, 9683, 9738, 9664
45541, 9618, 9714, 9582, 9672
45542, 9653, 9719, 9637, 9553
45543, 9659, 9700, 9600, 9554
45544, 9527, 9690, 9646, 9517
45545, 9677, 9548, 9547, 9539
45546, 9504, 9623, 9675, 9665
45547, 9563, 9564, 9638, 9592
45548, 9670, 9612, 9576, 9575
** ... 533 like lines cut
**
** Node sets +++++++++++++++++++++++++++++++++++++++++++++++
**
*Nset, Nset=Node_Set-Punch
1, 2, 3, 4, 5, 6, 7, 8, 9, 10, 11, 12, 13, 14, 15, 16, 
17, 18, 19, 20, 21, 22, 23, 24, 25, 26, 27, 28, 29, 30, 31, 32, 
33, 34, 35, 36, 37, 38, 39, 40, 41, 42, 43, 44, 45, 46, 47, 48, 
49, 50, 51, 52, 53, 54, 55, 56, 57, 58, 59, 60, 61, 62, 63, 64, 
65, 66, 67, 68, 69, 70, 71, 72, 73, 74, 75, 76, 77, 78, 79, 80, 
81, 82, 83, 84, 85, 86, 87, 88, 89
*Nset, Nset=Node_Set-Die
9496, 9497, 9498, 9499, 9500, 9501, 9502, 9503, 9504, 9505, 9506, 9507, 9508, 9509, 9510, 9511, 
9512, 9513, 9514, 9515, 9516, 9517, 9518, 9519, 9520, 9521, 9522, 9523, 9524, 9525, 9526, 9527, 
9528, 9529, 9530, 9531, 9532, 9533, 9534, 9535, 9536, 9537, 9538, 9539, 9540, 9541, 9542, 9543, 
9544, 9545, 9546, 9547, 9548, 9549, 9550, 9551, 9552, 9553, 9554, 9555, 9556, 9557, 9558, 9559, 
9560, 9561, 9562, 9563, 9564, 9565, 9566, 9567, 9568, 9569, 9570, 9571, 9572, 9573, 9574, 9575, 
9576, 9577, 9578, 9579, 9580, 9581, 9582, 9583, 9584, 9585, 9586, 9587, 9588, 9589, 9590, 9591, 
9592, 9593, 9594, 9595, 9596, 9597, 9598, 9599, 9600, 9601, 9602, 9603, 9604, 9605, 9606, 9607, 
9608, 9609, 9610, 9611, 9612, 9613, 9614, 9615, 9616, 9617, 9618, 9619, 9620, 9621, 9622, 9623, 
9624, 9625, 9626, 9627, 9628, 9629, 9630, 9631, 9632, 9633, 9634, 9635, 9636, 9637, 9638, 9639, 
9640, 9641, 9642, 9643, 9644, 9645, 9646, 9647, 9648, 9649, 9650, 9651, 9652, 9653, 9654, 9655, 
9656, 9657, 9658, 9659, 9660, 9661, 9662, 9663, 9664, 9665, 9666, 9667, 9668, 9669, 9670, 9671, 
9672, 9673, 9674, 9675, 9676, 9677, 9678, 9679, 9680, 9681, 9682, 9683, 9684, 9685, 9686, 9687, 
9688, 9689, 9690, 9691, 9692, 9693, 9694, 9695, 9696, 9697, 9698, 9699, 9700, 9701, 9702, 9703, 
9704, 9705, 9706, 9707, 9708, 9709, 9710, 9711, 9712, 9713, 9714, 9715, 9716, 9717, 9718, 9719, 
9720, 9721, 9722, 9723, 9724, 9725, 9726, 9727, 9728, 9729, 9730, 9731, 9732, 9733, 9734, 9735, 
9736, 9737, 9738, 9739, 9740
*Nset, Nset=Internal-1_Internal_Selection-1_Contact_Pair-1_Master
1, 2, 3, 4, 5, 6, 7, 8, 9, 10, 11, 12, 13, 14, 15, 16, 
17, 18, 19, 20, 21, 22, 23, 24, 25, 26, 27, 28, 29, 30, 31, 32, 
33, 34, 35, 36, 37, 38, 39, 40, 41, 42, 43, 44, 45, 46, 47, 48, 
49, 50, 51, 52, 53, 54, 55, 56, 57, 58, 59, 60, 61, 62, 63, 64, 
65, 66, 67, 68, 69, 70, 71, 72, 73, 74, 75, 76, 77, 78, 79, 80, 
81, 82, 83, 84, 85, 86, 87, 88
*Nset, Nset=Internal-1_Internal_Selection-1_Contact_Pair-1_Slave
90, 91, 92, 93, 94, 95, 96, 97, 98, 99, 100, 101, 102, 103, 104, 105, 
106, 107, 108, 109, 110, 111, 112, 113, 114, 115, 116, 117, 118, 119, 120, 121, 
122, 123, 124, 125, 126, 127, 128, 129, 130, 131, 132, 133, 134, 135, 136, 137, 
138, 139, 140, 141, 142, 143, 144, 145, 146, 147, 148, 149, 150, 151, 152, 153, 
154, 155, 156, 157, 158, 159, 160, 161, 162, 163, 164, 165, 166, 167, 168, 169, 
170, 171, 172, 173, 174, 175, 176, 177, 178, 179, 180, 181, 182, 183, 184, 185, 
186, 187, 188, 189, 190, 191, 192, 193, 194, 195, 196, 197, 198, 199, 200, 201, 
202, 203, 204, 205, 206, 207, 208, 209, 210, 211, 212, 213, 214, 215, 216, 217, 
218, 219, 220, 221, 222, 223, 224, 225, 226, 227, 228, 229, 230, 231, 232, 233, 
234, 235, 236, 237, 238, 239, 240, 241, 242, 243, 244, 245, 246, 247, 248, 249, 
250, 251, 252, 253, 254, 255, 256, 257, 258, 259, 260, 261, 262, 263, 264, 265, 
266, 267, 268, 269, 270, 271, 272, 273, 274, 275, 276, 277, 278, 279, 280, 281, 
282, 283, 284, 285, 286, 287, 288, 289, 290, 291, 292, 293, 294, 295, 296, 297, 
298, 299, 300, 301, 302, 303, 304, 305, 306, 307, 308, 309, 310, 311, 312, 313, 
314, 315, 316, 317, 318, 319, 320, 321, 322, 323, 324, 325, 326, 327, 328, 329, 
330, 331, 332, 333, 334, 335, 336, 337, 338, 339, 340, 341, 342, 343, 344, 345, 
346, 347, 348, 349, 350, 351, 352, 353, 354, 355, 356, 357, 358, 359, 360, 361, 
362, 363, 364, 365, 366, 367, 368, 369, 370, 371, 372, 373, 374, 375, 376, 377, 
378, 379, 380, 381, 382, 383, 384, 385, 386, 387, 388, 389, 390, 391, 392, 393, 
394, 395, 396, 397, 398, 399, 400, 401, 402, 403, 404, 405, 406, 407, 408, 409, 
** ... 309 like lines cut
*Nset, Nset=Internal-1_Internal_Selection-1_Contact_Pair-2_Master
9496, 9497, 9498, 9499, 9500, 9501, 9502, 9503, 9504, 9505, 9506, 9507, 9508, 9509, 9510, 9511, 
9512, 9513, 9514, 9515, 9516, 9517, 9518, 9519, 9520, 9521, 9522, 9523, 9524, 9525, 9526, 9527, 
9528, 9529, 9530, 9531, 9532, 9533, 9534, 9535, 9536, 9537, 9538, 9539, 9540, 9541, 9542, 9543, 
9544, 9545, 9546, 9547, 9548, 9549, 9550, 9551, 9552, 9553, 9554, 9555, 9556, 9557, 9558, 9559, 
9560, 9561, 9562, 9563, 9564, 9565, 9566, 9567, 9568, 9569, 9570, 9571, 9572, 9573, 9574, 9575, 
9576, 9577, 9578, 9579, 9580, 9581, 9582, 9583, 9584, 9585, 9586, 9587, 9588, 9589, 9590, 9591, 
9592, 9593, 9594, 9595, 9596, 9597, 9598, 9599, 9600, 9601, 9602, 9603, 9604, 9605, 9606, 9607, 
9608, 9609, 9610, 9611, 9612, 9613, 9614, 9615, 9616, 9617, 9618, 9619, 9620, 9621, 9622, 9623, 
9624, 9625, 9626, 9627, 9628, 9629, 9630, 9631, 9632, 9633, 9634, 9635, 9636, 9637, 9638, 9639, 
9640, 9641, 9642, 9643, 9644, 9645, 9646, 9647, 9648, 9649, 9650, 9651, 9652, 9653, 9654, 9655, 
9656, 9657, 9658, 9659, 9660, 9661, 9662, 9663, 9664, 9665, 9666, 9667, 9668, 9669, 9670, 9671, 
9672, 9673, 9674, 9675, 9676, 9677, 9678, 9679, 9680, 9681, 9682, 9683, 9684, 9685, 9686, 9687, 
9688, 9689, 9690, 9691, 9692, 9693, 9694, 9695, 9696, 9697, 9698, 9699, 9700, 9701, 9702, 9703, 
9704, 9705, 9706, 9707, 9708, 9709, 9710, 9711, 9712, 9713, 9714, 9715, 9716, 9717, 9718, 9719, 
9720, 9721, 9722, 9723, 9724, 9725, 9726, 9727, 9728, 9729, 9730, 9731, 9732, 9733, 9734, 9735, 
9736, 9737, 9738, 9739, 9740
*Nset, Nset=Internal-1_Internal_Selection-1_Contact_Pair-2_Slave
90, 91, 92, 93, 94, 95, 96, 97, 98, 99, 100, 101, 102, 103, 104, 105, 
106, 107, 108, 109, 110, 111, 112, 113, 114, 115, 116, 117, 118, 119, 120, 121, 
122, 123, 124, 125, 126, 127, 128, 129, 130, 131, 132, 133, 134, 135, 136, 137, 
138, 139, 140, 141, 142, 143, 144, 145, 146, 147, 148, 149, 150, 151, 152, 153, 
154, 155, 156, 157, 158, 159, 160, 161, 162, 163, 164, 165, 166, 167, 168, 169, 
170, 171, 172, 173, 174, 175, 176, 177, 178, 179, 180, 181, 182, 183, 184, 185, 
186, 187, 188, 189, 190, 191, 192, 193, 194, 195, 196, 197, 198, 199, 200, 201, 
202, 203, 204, 205, 206, 207, 208, 209, 210, 211, 212, 213, 214, 215, 216, 217, 
218, 219, 220, 221, 222, 223, 224, 225, 226, 227, 228, 229, 230, 231, 232, 233, 
234, 235, 236, 237, 238, 239, 240, 241, 242, 243, 244, 245, 246, 247, 248, 249, 
250, 251, 252, 253, 254, 255, 256, 257, 258, 259, 260, 261, 262, 263, 264, 265, 
266, 267, 268, 269, 270, 271, 272, 273, 274, 275, 276, 277, 278, 279, 280, 281, 
282, 283, 284, 285, 286, 287, 288, 289, 290, 291, 292, 293, 294, 295, 296, 297, 
298, 299, 300, 301, 302, 303, 304, 305, 306, 307, 308, 309, 310, 311, 312, 313, 
314, 315, 316, 317, 318, 319, 320, 321, 322, 323, 324, 325, 326, 327, 328, 329, 
330, 331, 332, 333, 334, 335, 336, 337, 338, 339, 340, 341, 342, 343, 344, 345, 
346, 347, 348, 349, 350, 351, 352, 353, 354, 355, 356, 357, 358, 359, 360, 361, 
362, 363, 364, 365, 366, 367, 368, 369, 370, 371, 372, 373, 374, 375, 376, 377, 
378, 379, 380, 381, 382, 383, 384, 385, 386, 387, 388, 389, 390, 391, 392, 393, 
394, 395, 396, 397, 398, 399, 400, 401, 402, 403, 404, 405, 406, 407, 408, 409, 
** ... 309 like lines cut
**
** Additional node sets ++++++++++++++++++++++++++++++++++++
**
*Nset, Nset=Reference_Point-Punch_Ref_97401
9741
*Nset, Nset=Reference_Point-Punch_Rot_97402
9742
*Nset, Nset=Reference_Point-Die_Ref_97421
9743
*Nset, Nset=Reference_Point-Die_Rot_97422
9744
**
** Element sets ++++++++++++++++++++++++++++++++++++++++++++
**
*Elset, Elset=Internal_Selection-1_Solid_Section-1
Solid_part-1, 
Solid_part-4
*Elset, Elset=Internal_Selection-1_Solid_Section-2
Solid_part-5, 
Solid_part-6
*Elset, Elset=Internal-1_Internal_Selection-1_Contact_Pair-1_Master_S4
2, 16, 20, 21, 28, 29, 33, 36, 41, 42, 43, 45, 52, 53, 54, 59, 
63, 65, 66, 77, 95, 102, 106, 113, 117, 121, 129, 133, 134, 137, 138, 140, 
141, 142, 147, 149, 157, 159, 161, 172, 173, 177, 179, 180
*Elset, Elset=Internal-1_Internal_Selection-1_Contact_Pair-1_Master_S1
5, 9, 12, 14, 18, 21, 22, 50, 52, 64, 73, 76, 77, 80, 90, 98, 
102, 103, 104, 111, 125, 127, 129, 132, 141, 145, 153, 165, 166, 178, 179, 183
*Elset, Elset=Internal-1_Internal_Selection-1_Contact_Pair-1_Master_S2
6, 7, 8, 12, 26, 27, 30, 34, 39, 46, 51, 55, 63, 64, 65, 70, 
71, 72, 77, 80, 82, 83, 89, 90, 91, 93, 99, 108, 113, 114, 117, 120, 
122, 124, 127, 139, 142, 144, 146, 157, 164, 168, 179, 180, 185
*Elset, Elset=Internal-1_Internal_Selection-1_Contact_Pair-1_Master_S3
6, 13, 15, 16, 17, 20, 24, 27, 31, 36, 37, 40, 41, 49, 52, 59, 
63, 64, 66, 69, 71, 74, 76, 79, 85, 88, 92, 94, 96, 97, 100, 104, 
105, 110, 112, 113, 125, 128, 144, 145, 148, 151, 153, 155, 159, 163, 169, 174, 
176, 178, 180
*Elset, Elset=Internal-1_Internal_Selection-1_Contact_Pair-1_Slave_S2
186, 191, 192, 207, 219, 262, 263, 273, 274, 291, 310, 313, 340, 388, 396, 417, 
431, 433, 461, 469, 485, 491, 496, 503, 517, 522, 528, 530, 548, 552, 555, 594, 
600, 607, 622, 638, 642, 650, 651, 653, 670, 700, 703, 712, 714, 722, 734, 736, 
740, 747, 763, 778, 792, 808, 837, 841, 849, 865, 871, 888, 901, 907, 917, 926, 
931, 934, 940, 950, 955, 960, 962, 963, 1017, 1024, 1036, 1039, 1059, 1064, 1069, 1075, 
1111, 1115, 1122, 1131, 1151, 1164, 1184, 1185, 1212, 1226, 1232, 1240, 1243, 1248, 1249, 1284, 
1287, 1294, 1304, 1311, 1372, 1389, 1398, 1400, 1427, 1462, 1463, 1476, 1500, 1523, 1538, 1539, 
1551, 1576, 1590, 1601, 1606, 1611, 1633, 1651, 1659, 1662, 1707, 1714, 1734, 1748, 1752, 1753, 
1768, 1797, 1806, 1808, 1830, 1834, 1836, 1840, 1847, 1886, 1890, 1894, 1897, 1902, 1905, 1925, 
1948, 1959, 1965, 1976, 2008, 2021, 2029, 2034, 2037, 2045, 2053, 2059, 2064, 2073, 2078, 2083, 
2117, 2120, 2125, 2130, 2140, 2175, 2183, 2189, 2210, 2214, 2216, 2229, 2236, 2239, 2246, 2256, 
2258, 2259, 2262, 2273, 2276, 2279, 2305, 2339, 2350, 2359, 2360, 2368, 2374, 2377, 2430, 2444, 
2452, 2480, 2482, 2483, 2490, 2498, 2501, 2508, 2543, 2553, 2556, 2572, 2611, 2612, 2617, 2620, 
2629, 2633, 2643, 2652, 2667, 2678, 2683, 2684, 2705, 2717, 2758, 2761, 2777, 2785, 2836, 2841, 
2847, 2858, 2863, 2864, 2867, 2870, 2871, 2872, 2875, 2891, 2924, 2927, 2940, 2951, 2956, 2962, 
2988, 3012, 3019, 3022, 3037, 3059, 3069, 3096, 3111, 3116, 3117, 3128, 3136, 3143, 3147, 3152, 
3156, 3185, 3198, 3199, 3228, 3230, 3240, 3249, 3253, 3254, 3265, 3272, 3277, 3290, 3341, 3358, 
3374, 3381, 3396, 3410, 3444, 3454, 3459, 3472, 3482, 3494, 3497, 3506, 3508, 3516, 3520, 3542, 
3545, 3551, 3583, 3586, 3592, 3599, 3604, 3605, 3623, 3646, 3648, 3665, 3668, 3671, 3684, 3691, 
3705, 3706, 3746, 3767, 3775, 3780, 3791, 3810, 3811, 3821, 3827, 3840, 3847, 3850, 3874, 3886, 
** ... 232 like lines cut
*Elset, Elset=Internal-1_Internal_Selection-1_Contact_Pair-1_Slave_S4
188, 189, 194, 195, 198, 201, 224, 239, 264, 277, 290, 297, 298, 321, 337, 354, 
368, 393, 405, 409, 424, 429, 437, 440, 466, 477, 509, 524, 542, 543, 553, 556, 
559, 587, 639, 646, 651, 654, 679, 692, 693, 697, 700, 704, 716, 740, 758, 762, 
789, 795, 796, 803, 807, 835, 848, 850, 855, 898, 901, 903, 923, 934, 944, 965, 
992, 1008, 1032, 1036, 1044, 1054, 1056, 1063, 1085, 1094, 1096, 1124, 1126, 1134, 1135, 1140, 
1162, 1176, 1198, 1203, 1217, 1236, 1273, 1301, 1320, 1327, 1338, 1390, 1391, 1396, 1411, 1427, 
1434, 1437, 1438, 1442, 1444, 1447, 1451, 1453, 1472, 1474, 1488, 1490, 1499, 1525, 1561, 1576, 
1582, 1591, 1623, 1629, 1632, 1633, 1654, 1668, 1672, 1676, 1681, 1688, 1699, 1704, 1759, 1761, 
1763, 1889, 1897, 1898, 1921, 1952, 2015, 2024, 2028, 2065, 2067, 2070, 2081, 2095, 2112, 2126, 
2133, 2171, 2180, 2183, 2201, 2223, 2251, 2293, 2313, 2324, 2332, 2341, 2352, 2374, 2378, 2387, 
2419, 2464, 2502, 2514, 2517, 2537, 2542, 2544, 2549, 2551, 2557, 2569, 2570, 2588, 2592, 2621, 
2631, 2638, 2696, 2728, 2778, 2846, 2848, 2859, 2864, 2898, 2903, 2906, 2907, 2909, 2930, 2936, 
2944, 2986, 3002, 3020, 3021, 3025, 3029, 3034, 3050, 3063, 3067, 3072, 3097, 3111, 3128, 3134, 
3136, 3141, 3172, 3202, 3204, 3234, 3241, 3258, 3298, 3305, 3324, 3328, 3340, 3402, 3407, 3412, 
3432, 3451, 3471, 3484, 3500, 3511, 3518, 3528, 3540, 3548, 3549, 3566, 3594, 3596, 3601, 3610, 
3626, 3631, 3649, 3653, 3667, 3676, 3678, 3696, 3710, 3715, 3729, 3745, 3753, 3790, 3796, 3800, 
3801, 3807, 3813, 3840, 3849, 3856, 3857, 3905, 3929, 3938, 3948, 3949, 3950, 3955, 3960, 3975, 
3976, 3998, 4013, 4015, 4017, 4021, 4027, 4035, 4077, 4091, 4155, 4181, 4194, 4196, 4201, 4204, 
4205, 4240, 4269, 4293, 4306, 4308, 4311, 4336, 4338, 4341, 4355, 4366, 4372, 4377, 4381, 4390, 
4403, 4408, 4412, 4455, 4488, 4500, 4517, 4534, 4542, 4543, 4545, 4549, 4563, 4570, 4585, 4597, 
** ... 204 like lines cut
*Elset, Elset=Internal-1_Internal_Selection-1_Contact_Pair-1_Slave_S1
191, 192, 223, 249, 265, 276, 283, 285, 293, 308, 311, 317, 319, 327, 351, 357, 
370, 373, 388, 439, 442, 445, 459, 463, 474, 481, 498, 512, 529, 556, 565, 580, 
593, 602, 610, 616, 618, 627, 633, 647, 649, 652, 732, 765, 855, 856, 865, 878, 
879, 880, 904, 918, 919, 938, 943, 945, 948, 951, 954, 980, 1009, 1021, 1086, 1102, 
1128, 1152, 1159, 1163, 1188, 1195, 1200, 1210, 1213, 1241, 1249, 1255, 1286, 1295, 1326, 1356, 
1361, 1374, 1377, 1393, 1401, 1413, 1417, 1420, 1435, 1438, 1440, 1465, 1467, 1469, 1482, 1487, 
1490, 1506, 1515, 1531, 1554, 1574, 1593, 1615, 1619, 1621, 1630, 1635, 1640, 1650, 1651, 1653, 
1695, 1709, 1710, 1735, 1738, 1740, 1747, 1766, 1771, 1780, 1782, 1786, 1788, 1796, 1808, 1847, 
1850, 1858, 1864, 1875, 1880, 1888, 1903, 1904, 1909, 1924, 1932, 1936, 1958, 1963, 1973, 2007, 
2032, 2033, 2109, 2134, 2143, 2149, 2153, 2180, 2194, 2224, 2226, 2233, 2284, 2297, 2345, 2376, 
2389, 2390, 2410, 2413, 2435, 2445, 2454, 2466, 2480, 2518, 2547, 2573, 2576, 2577, 2593, 2611, 
2619, 2629, 2630, 2637, 2669, 2672, 2678, 2713, 2718, 2723, 2727, 2768, 2775, 2788, 2794, 2801, 
2816, 2840, 2842, 2873, 2878, 2882, 2958, 2984, 2991, 2994, 2999, 3002, 3018, 3022, 3041, 3057, 
3084, 3085, 3102, 3104, 3105, 3115, 3120, 3125, 3129, 3150, 3163, 3170, 3180, 3205, 3219, 3223, 
3259, 3278, 3296, 3326, 3339, 3363, 3366, 3374, 3388, 3391, 3400, 3409, 3416, 3420, 3422, 3428, 
3432, 3440, 3455, 3465, 3467, 3468, 3472, 3507, 3524, 3527, 3539, 3564, 3587, 3627, 3630, 3651, 
3655, 3656, 3657, 3682, 3688, 3693, 3710, 3717, 3727, 3772, 3773, 3775, 3786, 3800, 3802, 3814, 
3832, 3835, 3851, 3864, 3888, 3896, 3902, 3905, 3910, 3911, 3941, 3943, 3970, 3985, 3997, 3998, 
4036, 4045, 4071, 4073, 4096, 4107, 4116, 4142, 4144, 4162, 4168, 4170, 4171, 4175, 4177, 4182, 
4193, 4198, 4211, 4223, 4246, 4266, 4275, 4283, 4289, 4290, 4299, 4308, 4314, 4333, 4334, 4335, 
** ... 200 like lines cut
*Elset, Elset=Internal-1_Internal_Selection-1_Contact_Pair-1_Slave_S3
193, 250, 255, 271, 275, 279, 293, 316, 354, 361, 362, 367, 413, 414, 425, 427, 
486, 489, 490, 509, 513, 523, 541, 565, 566, 571, 572, 582, 596, 597, 617, 621, 
636, 641, 644, 646, 657, 667, 669, 676, 679, 689, 690, 692, 696, 716, 739, 755, 
792, 793, 796, 826, 832, 834, 836, 850, 855, 864, 883, 966, 969, 986, 1000, 1018, 
1022, 1038, 1044, 1048, 1064, 1079, 1086, 1102, 1116, 1118, 1120, 1121, 1137, 1168, 1171, 1206, 
1216, 1218, 1233, 1236, 1237, 1245, 1283, 1299, 1300, 1309, 1313, 1320, 1330, 1367, 1368, 1430, 
1439, 1444, 1446, 1447, 1452, 1466, 1478, 1495, 1504, 1525, 1537, 1550, 1567, 1568, 1570, 1584, 
1591, 1593, 1615, 1625, 1654, 1667, 1681, 1692, 1703, 1705, 1717, 1720, 1730, 1744, 1763, 1764, 
1784, 1789, 1791, 1802, 1805, 1814, 1816, 1820, 1822, 1827, 1842, 1870, 1872, 1883, 1885, 1898, 
1908, 1922, 1927, 1930, 1949, 1954, 1990, 1993, 1999, 2031, 2066, 2105, 2128, 2169, 2176, 2179, 
2181, 2187, 2215, 2225, 2230, 2238, 2253, 2261, 2263, 2284, 2295, 2297, 2299, 2326, 2330, 2342, 
2353, 2357, 2366, 2383, 2408, 2410, 2413, 2432, 2468, 2470, 2474, 2475, 2500, 2524, 2525, 2535, 
2554, 2560, 2561, 2598, 2605, 2616, 2653, 2655, 2662, 2668, 2689, 2702, 2714, 2716, 2731, 2743, 
2746, 2747, 2767, 2774, 2776, 2782, 2790, 2816, 2834, 2856, 2865, 2889, 2901, 2915, 2916, 2920, 
2929, 2933, 2945, 2950, 2978, 2986, 2996, 2997, 3013, 3014, 3018, 3036, 3067, 3085, 3086, 3092, 
3124, 3148, 3169, 3174, 3176, 3189, 3190, 3206, 3210, 3220, 3224, 3227, 3236, 3238, 3240, 3246, 
3259, 3267, 3274, 3275, 3279, 3280, 3281, 3294, 3297, 3303, 3305, 3312, 3327, 3331, 3359, 3361, 
3366, 3370, 3389, 3404, 3417, 3427, 3442, 3451, 3455, 3460, 3475, 3480, 3482, 3486, 3487, 3504, 
3529, 3532, 3556, 3559, 3562, 3577, 3582, 3593, 3599, 3607, 3608, 3612, 3618, 3629, 3636, 3638, 
3645, 3677, 3680, 3692, 3694, 3711, 3740, 3757, 3770, 3781, 3783, 3784, 3808, 3813, 3826, 3835, 
** ... 242 like lines cut
*Elset, Elset=Internal-1_Internal_Selection-1_Contact_Pair-2_Master_S3
45529, 45532, 45533, 45535, 45538, 45545, 45548, 45549, 45559, 45561, 45566, 45574, 45579, 45581, 45587, 45594, 
45595, 45597, 45602, 45603, 45605, 45616, 45617, 45623, 45632, 45634, 45635, 45637, 45638, 45644, 45650, 45657, 
45658, 45663, 45667, 45668, 45670, 45671, 45674, 45675, 45676, 45689, 45690, 45692, 45694, 45695, 45701, 45710, 
45712, 45715, 45724, 45733, 45743, 45744, 45747, 45755, 45769, 45776, 45777, 45778, 45783, 45786, 45790, 45795, 
45796, 45800, 45805, 45806, 45809, 45813, 45814, 45815, 45816, 45817, 45823, 45825, 45826, 45833, 45835, 45836, 
45838, 45842, 45844, 45849, 45851, 45858, 45866, 45868, 45870, 45874, 45875, 45878, 45884, 45885, 45889, 45902, 
45908, 45909, 45910, 45913, 45917, 45920, 45922, 45928, 45931, 45934, 45935, 45946, 45948, 45951, 45952, 45954, 
45958, 45959, 45961, 45965, 45970, 45980, 45981, 45985, 45995, 46000, 46011, 46012, 46023, 46024, 46025, 46026, 
46029, 46032, 46040, 46043, 46044, 46045, 46048, 46050, 46051, 46056
*Elset, Elset=Internal-1_Internal_Selection-1_Contact_Pair-2_Master_S1
45531, 45536, 45547, 45551, 45552, 45556, 45568, 45574, 45584, 45588, 45592, 45600, 45612, 45626, 45633, 45636, 
45647, 45658, 45670, 45672, 45684, 45691, 45694, 45696, 45699, 45711, 45713, 45717, 45720, 45724, 45731, 45740, 
45743, 45746, 45747, 45753, 45755, 45761, 45763, 45765, 45774, 45779, 45785, 45790, 45793, 45807, 45819, 45829, 
45830, 45831, 45836, 45838, 45840, 45846, 45869, 45870, 45871, 45878, 45881, 45905, 45906, 45915, 45919, 45927, 
45930, 45932, 45933, 45934, 45941, 45955, 45958, 45961, 45963, 45967, 45976, 45977, 45978, 45985, 45993, 46004, 
46008, 46014, 46018, 46019, 46023, 46025, 46050, 46054, 46066, 46071, 46073, 46075, 46076, 46078
*Elset, Elset=Internal-1_Internal_Selection-1_Contact_Pair-2_Master_S2
45533, 45535, 45540, 45547, 45550, 45564, 45567, 45571, 45573, 45575, 45577, 45578, 45582, 45585, 45588, 45591, 
45592, 45604, 45608, 45610, 45613, 45620, 45633, 45634, 45639, 45641, 45642, 45643, 45648, 45649, 45653, 45654, 
45660, 45672, 45675, 45688, 45691, 45699, 45700, 45702, 45704, 45705, 45707, 45713, 45718, 45723, 45735, 45736, 
45745, 45750, 45756, 45757, 45768, 45770, 45771, 45789, 45798, 45799, 45803, 45806, 45808, 45812, 45821, 45824, 
45826, 45830, 45841, 45842, 45845, 45852, 45853, 45855, 45859, 45861, 45865, 45874, 45877, 45879, 45883, 45890, 
45892, 45893, 45894, 45898, 45900, 45909, 45910, 45911, 45916, 45917, 45920, 45928, 45930, 45937, 45940, 45944, 
45945, 45948, 45953, 45957, 45964, 45966, 45968, 45970, 45973, 45974, 45975, 45982, 45986, 45991, 45996, 45998, 
46001, 46002, 46006, 46008, 46015, 46017, 46020, 46029, 46030, 46031, 46038, 46041, 46042, 46047, 46049, 46053, 
46054, 46056, 46058, 46060, 46061, 46062, 46067, 46073, 46081
*Elset, Elset=Internal-1_Internal_Selection-1_Contact_Pair-2_Master_S4
45535, 45542, 45546, 45548, 45556, 45561, 45562, 45567, 45568, 45569, 45570, 45576, 45580, 45581, 45582, 45585, 
45590, 45591, 45596, 45597, 45606, 45607, 45613, 45614, 45621, 45622, 45626, 45628, 45633, 45634, 45636, 45639, 
45643, 45644, 45649, 45651, 45656, 45659, 45660, 45661, 45662, 45669, 45681, 45683, 45685, 45704, 45705, 45706, 
45727, 45738, 45742, 45751, 45752, 45756, 45758, 45760, 45764, 45766, 45780, 45793, 45795, 45796, 45799, 45801, 
45809, 45818, 45837, 45839, 45843, 45847, 45848, 45854, 45857, 45860, 45863, 45867, 45868, 45876, 45880, 45884, 
45890, 45891, 45894, 45895, 45903, 45904, 45912, 45914, 45916, 45917, 45918, 45923, 45925, 45926, 45928, 45932, 
45938, 45949, 45956, 45957, 45972, 45973, 45984, 45985, 45987, 45988, 45990, 45995, 46002, 46003, 46010, 46021, 
46024, 46029, 46051, 46056, 46059, 46065, 46074, 46076, 46080
*Elset, Elset=Internal-1_Internal_Selection-1_Contact_Pair-2_Slave_S2
186, 191, 192, 207, 219, 262, 263, 273, 274, 291, 310, 313, 340, 388, 396, 417, 
431, 433, 461, 469, 485, 491, 496, 503, 517, 522, 528, 530, 548, 552, 555, 594, 
600, 607, 622, 638, 642, 650, 651, 653, 670, 700, 703, 712, 714, 722, 734, 736, 
740, 747, 763, 778, 792, 808, 837, 841, 849, 865, 871, 888, 901, 907, 917, 926, 
931, 934, 940, 950, 955, 960, 962, 963, 1017, 1024, 1036, 1039, 1059, 1064, 1069, 1075, 
1111, 1115, 1122, 1131, 1151, 1164, 1184, 1185, 1212, 1226, 1232, 1240, 1243, 1248, 1249, 1284, 
1287, 1294, 1304, 1311, 1372, 1389, 1398, 1400, 1427, 1462, 1463, 1476, 1500, 1523, 1538, 1539, 
1551, 1576, 1590, 1601, 1606, 1611, 1633, 1651, 1659, 1662, 1707, 1714, 1734, 1748, 1752, 1753, 
1768, 1797, 1806, 1808, 1830, 1834, 1836, 1840, 1847, 1886, 1890, 1894, 1897, 1902, 1905, 1925, 
1948, 1959, 1965, 1976, 2008, 2021, 2029, 2034, 2037, 2045, 2053, 2059, 2064, 2073, 2078, 2083, 
2117, 2120, 2125, 2130, 2140, 2175, 2183, 2189, 2210, 2214, 2216, 2229, 2236, 2239, 2246, 2256, 
2258, 2259, 2262, 2273, 2276, 2279, 2305, 2339, 2350, 2359, 2360, 2368, 2374, 2377, 2430, 2444, 
2452, 2480, 2482, 2483, 2490, 2498, 2501, 2508, 2543, 2553, 2556, 2572, 2611, 2612, 2617, 2620, 
2629, 2633, 2643, 2652, 2667, 2678, 2683, 2684, 2705, 2717, 2758, 2761, 2777, 2785, 2836, 2841, 
2847, 2858, 2863, 2864, 2867, 2870, 2871, 2872, 2875, 2891, 2924, 2927, 2940, 2951, 2956, 2962, 
2988, 3012, 3019, 3022, 3037, 3059, 3069, 3096, 3111, 3116, 3117, 3128, 3136, 3143, 3147, 3152, 
3156, 3185, 3198, 3199, 3228, 3230, 3240, 3249, 3253, 3254, 3265, 3272, 3277, 3290, 3341, 3358, 
3374, 3381, 3396, 3410, 3444, 3454, 3459, 3472, 3482, 3494, 3497, 3506, 3508, 3516, 3520, 3542, 
3545, 3551, 3583, 3586, 3592, 3599, 3604, 3605, 3623, 3646, 3648, 3665, 3668, 3671, 3684, 3691, 
3705, 3706, 3746, 3767, 3775, 3780, 3791, 3810, 3811, 3821, 3827, 3840, 3847, 3850, 3874, 3886, 
** ... 232 like lines cut
*Elset, Elset=Internal-1_Internal_Selection-1_Contact_Pair-2_Slave_S4
188, 189, 194, 195, 198, 201, 224, 239, 264, 277, 290, 297, 298, 321, 337, 354, 
368, 393, 405, 409, 424, 429, 437, 440, 466, 477, 509, 524, 542, 543, 553, 556, 
559, 587, 639, 646, 651, 654, 679, 692, 693, 697, 700, 704, 716, 740, 758, 762, 
789, 795, 796, 803, 807, 835, 848, 850, 855, 898, 901, 903, 923, 934, 944, 965, 
992, 1008, 1032, 1036, 1044, 1054, 1056, 1063, 1085, 1094, 1096, 1124, 1126, 1134, 1135, 1140, 
1162, 1176, 1198, 1203, 1217, 1236, 1273, 1301, 1320, 1327, 1338, 1390, 1391, 1396, 1411, 1427, 
1434, 1437, 1438, 1442, 1444, 1447, 1451, 1453, 1472, 1474, 1488, 1490, 1499, 1525, 1561, 1576, 
1582, 1591, 1623, 1629, 1632, 1633, 1654, 1668, 1672, 1676, 1681, 1688, 1699, 1704, 1759, 1761, 
1763, 1889, 1897, 1898, 1921, 1952, 2015, 2024, 2028, 2065, 2067, 2070, 2081, 2095, 2112, 2126, 
2133, 2171, 2180, 2183, 2201, 2223, 2251, 2293, 2313, 2324, 2332, 2341, 2352, 2374, 2378, 2387, 
2419, 2464, 2502, 2514, 2517, 2537, 2542, 2544, 2549, 2551, 2557, 2569, 2570, 2588, 2592, 2621, 
2631, 2638, 2696, 2728, 2778, 2846, 2848, 2859, 2864, 2898, 2903, 2906, 2907, 2909, 2930, 2936, 
2944, 2986, 3002, 3020, 3021, 3025, 3029, 3034, 3050, 3063, 3067, 3072, 3097, 3111, 3128, 3134, 
3136, 3141, 3172, 3202, 3204, 3234, 3241, 3258, 3298, 3305, 3324, 3328, 3340, 3402, 3407, 3412, 
3432, 3451, 3471, 3484, 3500, 3511, 3518, 3528, 3540, 3548, 3549, 3566, 3594, 3596, 3601, 3610, 
3626, 3631, 3649, 3653, 3667, 3676, 3678, 3696, 3710, 3715, 3729, 3745, 3753, 3790, 3796, 3800, 
3801, 3807, 3813, 3840, 3849, 3856, 3857, 3905, 3929, 3938, 3948, 3949, 3950, 3955, 3960, 3975, 
3976, 3998, 4013, 4015, 4017, 4021, 4027, 4035, 4077, 4091, 4155, 4181, 4194, 4196, 4201, 4204, 
4205, 4240, 4269, 4293, 4306, 4308, 4311, 4336, 4338, 4341, 4355, 4366, 4372, 4377, 4381, 4390, 
4403, 4408, 4412, 4455, 4488, 4500, 4517, 4534, 4542, 4543, 4545, 4549, 4563, 4570, 4585, 4597, 
** ... 204 like lines cut
*Elset, Elset=Internal-1_Internal_Selection-1_Contact_Pair-2_Slave_S1
191, 192, 223, 249, 265, 276, 283, 285, 293, 308, 311, 317, 319, 327, 351, 357, 
370, 373, 388, 439, 442, 445, 459, 463, 474, 481, 498, 512, 529, 556, 565, 580, 
593, 602, 610, 616, 618, 627, 633, 647, 649, 652, 732, 765, 855, 856, 865, 878, 
879, 880, 904, 918, 919, 938, 943, 945, 948, 951, 954, 980, 1009, 1021, 1086, 1102, 
1128, 1152, 1159, 1163, 1188, 1195, 1200, 1210, 1213, 1241, 1249, 1255, 1286, 1295, 1326, 1356, 
1361, 1374, 1377, 1393, 1401, 1413, 1417, 1420, 1435, 1438, 1440, 1465, 1467, 1469, 1482, 1487, 
1490, 1506, 1515, 1531, 1554, 1574, 1593, 1615, 1619, 1621, 1630, 1635, 1640, 1650, 1651, 1653, 
1695, 1709, 1710, 1735, 1738, 1740, 1747, 1766, 1771, 1780, 1782, 1786, 1788, 1796, 1808, 1847, 
1850, 1858, 1864, 1875, 1880, 1888, 1903, 1904, 1909, 1924, 1932, 1936, 1958, 1963, 1973, 2007, 
2032, 2033, 2109, 2134, 2143, 2149, 2153, 2180, 2194, 2224, 2226, 2233, 2284, 2297, 2345, 2376, 
2389, 2390, 2410, 2413, 2435, 2445, 2454, 2466, 2480, 2518, 2547, 2573, 2576, 2577, 2593, 2611, 
2619, 2629, 2630, 2637, 2669, 2672, 2678, 2713, 2718, 2723, 2727, 2768, 2775, 2788, 2794, 2801, 
2816, 2840, 2842, 2873, 2878, 2882, 2958, 2984, 2991, 2994, 2999, 3002, 3018, 3022, 3041, 3057, 
3084, 3085, 3102, 3104, 3105, 3115, 3120, 3125, 3129, 3150, 3163, 3170, 3180, 3205, 3219, 3223, 
3259, 3278, 3296, 3326, 3339, 3363, 3366, 3374, 3388, 3391, 3400, 3409, 3416, 3420, 3422, 3428, 
3432, 3440, 3455, 3465, 3467, 3468, 3472, 3507, 3524, 3527, 3539, 3564, 3587, 3627, 3630, 3651, 
3655, 3656, 3657, 3682, 3688, 3693, 3710, 3717, 3727, 3772, 3773, 3775, 3786, 3800, 3802, 3814, 
3832, 3835, 3851, 3864, 3888, 3896, 3902, 3905, 3910, 3911, 3941, 3943, 3970, 3985, 3997, 3998, 
4036, 4045, 4071, 4073, 4096, 4107, 4116, 4142, 4144, 4162, 4168, 4170, 4171, 4175, 4177, 4182, 
4193, 4198, 4211, 4223, 4246, 4266, 4275, 4283, 4289, 4290, 4299, 4308, 4314, 4333, 4334, 4335, 
** ... 200 like lines cut
*Elset, Elset=Internal-1_Internal_Selection-1_Contact_Pair-2_Slave_S3
193, 250, 255, 271, 275, 279, 293, 316, 354, 361, 362, 367, 413, 414, 425, 427, 
486, 489, 490, 509, 513, 523, 541, 565, 566, 571, 572, 582, 596, 597, 617, 621, 
636, 641, 644, 646, 657, 667, 669, 676, 679, 689, 690, 692, 696, 716, 739, 755, 
792, 793, 796, 826, 832, 834, 836, 850, 855, 864, 883, 966, 969, 986, 1000, 1018, 
1022, 1038, 1044, 1048, 1064, 1079, 1086, 1102, 1116, 1118, 1120, 1121, 1137, 1168, 1171, 1206, 
1216, 1218, 1233, 1236, 1237, 1245, 1283, 1299, 1300, 1309, 1313, 1320, 1330, 1367, 1368, 1430, 
1439, 1444, 1446, 1447, 1452, 1466, 1478, 1495, 1504, 1525, 1537, 1550, 1567, 1568, 1570, 1584, 
1591, 1593, 1615, 1625, 1654, 1667, 1681, 1692, 1703, 1705, 1717, 1720, 1730, 1744, 1763, 1764, 
1784, 1789, 1791, 1802, 1805, 1814, 1816, 1820, 1822, 1827, 1842, 1870, 1872, 1883, 1885, 1898, 
1908, 1922, 1927, 1930, 1949, 1954, 1990, 1993, 1999, 2031, 2066, 2105, 2128, 2169, 2176, 2179, 
2181, 2187, 2215, 2225, 2230, 2238, 2253, 2261, 2263, 2284, 2295, 2297, 2299, 2326, 2330, 2342, 
2353, 2357, 2366, 2383, 2408, 2410, 2413, 2432, 2468, 2470, 2474, 2475, 2500, 2524, 2525, 2535, 
2554, 2560, 2561, 2598, 2605, 2616, 2653, 2655, 2662, 2668, 2689, 2702, 2714, 2716, 2731, 2743, 
2746, 2747, 2767, 2774, 2776, 2782, 2790, 2816, 2834, 2856, 2865, 2889, 2901, 2915, 2916, 2920, 
2929, 2933, 2945, 2950, 2978, 2986, 2996, 2997, 3013, 3014, 3018, 3036, 3067, 3085, 3086, 3092, 
3124, 3148, 3169, 3174, 3176, 3189, 3190, 3206, 3210, 3220, 3224, 3227, 3236, 3238, 3240, 3246, 
3259, 3267, 3274, 3275, 3279, 3280, 3281, 3294, 3297, 3303, 3305, 3312, 3327, 3331, 3359, 3361, 
3366, 3370, 3389, 3404, 3417, 3427, 3442, 3451, 3455, 3460, 3475, 3480, 3482, 3486, 3487, 3504, 
3529, 3532, 3556, 3559, 3562, 3577, 3582, 3593, 3599, 3607, 3608, 3612, 3618, 3629, 3636, 3638, 
3645, 3677, 3680, 3692, 3694, 3711, 3740, 3757, 3770, 3781, 3783, 3784, 3808, 3813, 3826, 3835, 
** ... 242 like lines cut
**
** Surfaces ++++++++++++++++++++++++++++++++++++++++++++++++
**
*Surface, Name=Internal_Selection-1_Contact_Pair-1_Master, Type=Element
Internal-1_Internal_Selection-1_Contact_Pair-1_Master_S4, S4
Internal-1_Internal_Selection-1_Contact_Pair-1_Master_S1, S1
Internal-1_Internal_Selection-1_Contact_Pair-1_Master_S2, S2
Internal-1_Internal_Selection-1_Contact_Pair-1_Master_S3, S3
*Surface, Name=Internal_Selection-1_Contact_Pair-1_Slave, Type=Element
Internal-1_Internal_Selection-1_Contact_Pair-1_Slave_S2, S2
Internal-1_Internal_Selection-1_Contact_Pair-1_Slave_S4, S4
Internal-1_Internal_Selection-1_Contact_Pair-1_Slave_S1, S1
Internal-1_Internal_Selection-1_Contact_Pair-1_Slave_S3, S3
*Surface, Name=Internal_Selection-1_Contact_Pair-2_Master, Type=Element
Internal-1_Internal_Selection-1_Contact_Pair-2_Master_S3, S3
Internal-1_Internal_Selection-1_Contact_Pair-2_Master_S1, S1
Internal-1_Internal_Selection-1_Contact_Pair-2_Master_S2, S2
Internal-1_Internal_Selection-1_Contact_Pair-2_Master_S4, S4
*Surface, Name=Internal_Selection-1_Contact_Pair-2_Slave, Type=Element
Internal-1_Internal_Selection-1_Contact_Pair-2_Slave_S2, S2
Internal-1_Internal_Selection-1_Contact_Pair-2_Slave_S4, S4
Internal-1_Internal_Selection-1_Contact_Pair-2_Slave_S1, S1
Internal-1_Internal_Selection-1_Contact_Pair-2_Slave_S3, S3
**
** Physical constants ++++++++++++++++++++++++++++++++++++++
**
**
** Coordinate systems ++++++++++++++++++++++++++++++++++++++
**
**
** Materials +++++++++++++++++++++++++++++++++++++++++++++++
**
*Material, Name=S185
*Density
7.8E-09
*Elastic
210000, 0.28
*Expansion, Zero=20
1.1E-05
*Conductivity
14
*Specific heat
440000000
*Material, Name=1060_Alloy
*Density
2.7E-09
*Elastic
69000, 0.33
*Expansion, Zero=20
2.4E-05
*Conductivity
200
*Specific heat
900000000
**
** Sections ++++++++++++++++++++++++++++++++++++++++++++++++
**
*Solid section, Elset=Internal_Selection-1_Solid_Section-1, Material=S185
*Solid section, Elset=Internal_Selection-1_Solid_Section-2, Material=1060_Alloy
**
** Pre-tension sections ++++++++++++++++++++++++++++++++++++
**
**
** Constraints +++++++++++++++++++++++++++++++++++++++++++++
**
**
** Surface interactions ++++++++++++++++++++++++++++++++++++
**
*Surface interaction, Name=Surface_Interaction-1
*Surface behavior, Pressure-overclosure=Linear
10000000, 2.86
**
** Contact pairs +++++++++++++++++++++++++++++++++++++++++++
**
*Contact pair, Interaction=Surface_Interaction-1, Type=Surface to surface
Internal_Selection-1_Contact_Pair-1_Slave, Internal_Selection-1_Contact_Pair-1_Master
*Contact pair, Interaction=Surface_Interaction-1, Type=Surface to surface
Internal_Selection-1_Contact_Pair-2_Slave, Internal_Selection-1_Contact_Pair-2_Master
**
** Amplitudes ++++++++++++++++++++++++++++++++++++++++++++++
**
**
** Initial conditions ++++++++++++++++++++++++++++++++++++++
**
**
** Steps +++++++++++++++++++++++++++++++++++++++++++++++++++
**
**
** Step-1 ++++++++++++++++++++++++++++++++++++++++++++++++++
**
*Step, Inc=1000000
*Dynamic, Solver=Pardiso
1E-06, 0.1, 1E-09, 1E-06
**
** Controls ++++++++++++++++++++++++++++++++++++++++++++++++
**
**
** Output frequency ++++++++++++++++++++++++++++++++++++++++
**
**
** Boundary conditions +++++++++++++++++++++++++++++++++++++
**
*Boundary, op=New
**
** Loads +++++++++++++++++++++++++++++++++++++++++++++++++++
**
*Cload, op=New
*Dload, op=New
**
** Defined fields ++++++++++++++++++++++++++++++++++++++++++
**
**
** History outputs +++++++++++++++++++++++++++++++++++++++++
**
**
** Field outputs +++++++++++++++++++++++++++++++++++++++++++
**
*Node file
RF, U, V
*El file
S, E, ENER, NOE
**
** End step ++++++++++++++++++++++++++++++++++++++++++++++++
**
*End step
